544

O  5.92487  5.92487  5.92487
H  5.697096898169761  6.8296342271813835  5.710970614083386
H  5.374712856372403  5.37098289570814  5.371003560310158
M  5.825285542852986  5.969786505062347  5.826586711227687
O  5.32179  5.32179  8.5662
H  5.529768522462134  5.529768522462134  7.655309387253917
H  4.950976867441743  6.122556558645318  8.937013132558256
M  5.300945205308126  5.450921540891158  8.49706356650116
O  7.66071  4.2387  9.64929
H  6.859943441354682  4.609513132558257  9.278476867441745
H  8.031523132558256  4.609513132558257  10.450056558645318
M  7.60567077407277  4.333637109655802  9.70432922592723
O  9.64929  4.2387  7.66071
H  8.972447389048238  4.2387  8.337552610951763
H  9.278476867441745  4.609513132558257  6.859943441354682
M  9.515177424864172  4.286168554827901  7.644846239552796
O  8.5662  5.32179  5.32179
H  7.655309387253917  5.529768522462134  5.529768522462134
H  8.939556003243318  6.125242176696734  4.959434187843693
M  8.497389084628582  5.451265332403721  5.302027844357146
O  4.2387  7.66071  9.64929
H  4.5898993169544635  8.037644325253558  10.456018823221513
H  3.3278093872539163  7.452731477537866  9.857268522462135
M  4.167052761463189  7.682338381209062  9.779184782691631
O  4.20371  9.63809  7.64989
H  4.215619397457575  8.965057580890011  8.330417272840078
H  4.582808175441118  10.434925829339294  8.020793052640949
M  4.2537636868374  9.653938330197496  7.784485767168449
O  5.26439  8.54844  5.30462
H  4.901155313443121  8.921595594719145  6.107768370235368
H  6.060955600371221  8.938316005731302  4.944464777269245
M  5.31986158510571  8.646117250833916  5.361328467592915
O  7.59104  9.68721  4.25266
H  8.27562616177944  9.01821003123617  4.2562193389961225
H  7.406493627256981  9.882741069945155  3.3339967989336357
M  7.655051125976716  9.626600268548946  4.1355156649269125
O  9.65672  7.66856  4.2634
H  10.465900697261638  8.038788224031652  4.616088958303967
H  9.860402417388991  7.459652589179122  3.3517514895801703
M  9.78637869886876  7.6892110104265905  4.191846433482174
O  11.38513  11.38513  5.92487
H  10.474239387253917  11.593108522462135  5.7168914775378665
H  11.935287143627598  11.93901710429186  5.371003560310158
M  11.338951763703529  11.482657992133298  5.8273446531850785
O  11.98821  11.98821  8.5662
H  11.780231477537866  11.780231477537866  7.655309387253917
H  12.359023132558256  11.187443441354683  8.937013132558256
M  12.009054794691876  11.859078459108844  8.49706356650116
O  9.64929  13.0713  9.64929
H  10.450056558645318  12.700486867441745  9.278476867441745
H  9.857268522462135  13.982190612746084  9.857268522462135
M  9.778421540891157  13.140436433498841  9.628445205308125
O  7.66071  13.0713  7.66071
H  8.337552610951763  13.0713  8.337552610951763
H  8.031523132558256  12.700486867441745  6.859943441354682
M  7.794822575135828  13.0238314451721  7.644846239552796
O  8.7438  11.98821  5.32179
H  8.347860309992221  11.197883109139891  4.954574794078544
H  8.7438  12.665052610951763  4.6449473890482365
M  8.693114942666645  11.973682642983896  5.188138002882668
O  13.0713  9.64929  9.64929
H  13.083209367681619  8.976255859961245  8.968764428618794
H  12.720100683045537  9.272355674746443  10.45601882322151
M  13.02786679295984  9.51488136857305  9.665445538877792
O  13.10629  7.6719  7.64989
H  12.743055820055632  8.045058498810366  6.846742749935769
H  12.727190706679412  6.8750652115898285  8.020794146354755
M  13.01126235916873  7.617664323276791  7.594557667712142
O  12.04561  8.76156  5.30462
H  11.81783689816976  9.666324227181383  5.518519385916615
H  12.715425893332904  8.755400071735627  4.620850620514182
M  12.10219681055862  8.876592191922244  5.24447097184167
O  5.92487  11.38513  11.38513
H  5.7168914775378665  11.593108522462135  10.474239387253917
H  6.835760612746084  11.593108522462135  11.593108522462135
M  6.0148512281907145  11.438377520272052  11.295148771809284
O  5.32179  11.98821  8.7438
H  6.122556558645318  12.359023132558256  8.372986867441744
H  4.642377952339948  12.662420963452936  8.735392488225408
M  5.3373248415482895  12.121985692505152  8.69525518222832
O  8.5662  11.98821  11.98821
H  8.937013132558256  12.359023132558256  11.187443441354683
H  8.55429063231838  12.661244140038754  12.668735571381207
M  8.612144012078133  12.121835044909762  11.972817702922683
O  5.26439  8.76156  12.00537
H  5.49216328520788  9.666324955597199  11.79147389047763
H  4.594575840438457  8.755400087680167  12.689141078015936
M  5.207803434859581  8.87659228720935  12.06551966500867
O  7.59104  7.62279  13.05734
H  6.794475471635633  8.012665481041623  12.69718183830681
H  8.27562616177944  8.29178996876383  13.053780661003877
M  7.576705418058136  7.7583388329074  13.010779771660122
O  9.65672  9.64144  13.0466
H  9.283363996756682  10.444892176696733  12.684244187843694
H  9.860402417388991  9.850347410820879  13.958248510419828
M  9.634999733898834  9.771034241320677  13.116916092594135
O  11.38513  5.92487  11.38513
H  10.474239387253917  5.7168914775378665  11.593108522462135
H  11.93528599821431  5.370984048887111  11.93899873064706
M  11.338951617076809  5.827342155487523  11.482655640085085
O  11.98821  5.32179  8.7438
H  11.187443441354683  4.950976867441743  8.372986867441744
H  11.780231477537866  5.529768522462134  9.654690612746084
M  11.859078459108844  5.300945205308126  8.812936433498841
O  8.7438  5.32179  11.98821
H  8.347860309992221  6.11211689086011  12.355425205921456
H  8.755709397457576  4.648757580890011  12.668737272840078
M  8.694639489228095  5.336805107541817  12.122333678294483
O  12.04561  8.54844  12.00537
H  11.236430357811571  8.918667741299076  12.358061885702504
H  11.81783671479212  7.6436750444028  11.791473890477628
M  11.912867514456202  8.480012787378348  12.023137533922096
O  15.71263  15.71263  15.71263
H  15.94040310183024  14.807865772818618  15.926529385916615
H  16.267438304536448  16.260906691493254  16.267438304536448
M  15.812809861859606  15.666995294409801  15.811033858836279
O  16.31571  16.31571  13.0713
H  16.107731477537865  16.107731477537865  13.982190612746084
H  15.49792664830187  16.65502770746809  12.707533972058997
M  16.184400104290475  16.33252300028803  13.141338547913167
O  13.0713  16.31571  16.31571
H  13.982190612746084  16.107731477537865  16.107731477537865
H  13.0713  16.989366610244428  16.99572368476964
M  13.187904988326743  16.375322413642262  16.376136195879592
O  16.37311  13.08906  16.33288
H  17.034871539394313  13.08906  17.02447489947401
H  16.697540784664433  12.707852356308809  15.51700179931473
M  16.49935451588991  13.040260822337306  16.316970237966927
O  10.25237  10.25237  15.71263
H  10.024596898169762  11.157134227181384  15.926529385916615
H  9.689496917769976  9.689496917769976  16.244212191765058
M  10.151157749294075  10.296136191470438  15.80806063617849
O  13.97679  8.5662  13.97679
H  13.306975840438456  8.560040087680168  13.293018921984062
H  14.184768522462134  7.655309387253917  14.184768522462134
M  13.917669466404313  8.448806468576977  13.91588281245193
O  12.8937  9.64929  16.31571
H  11.982809387253917  9.857268522462135  16.107731477537865
H  13.264513132558257  9.278476867441745  15.514943441354681
M  12.82456356650116  9.628445205308125  16.186578459108844
O  8.53121  13.9656  13.98761
H  8.894444179944367  13.592441501189633  14.79075725006423
H  8.910309293320587  14.762434788410172  13.616705853645247
M  8.626237640831269  14.01983567672321  14.04294233228786
O  9.59189  12.87594  16.33288
H  8.913541248774077  12.87594  17.008213111664336
H  10.40750867382517  13.2506286129901  16.665455498501053
M  9.60946220625432  12.92390466308085  16.46190446251855
O  15.71263  10.25237  10.25237
H  14.801739387253917  10.044391477537866  10.044391477537866
H  15.920608522462134  10.044391477537866  11.163260612746084
M  15.622648771809285  10.199122479727949  10.342351228190717
O  16.31571  9.64929  12.8937
H  15.514943441354681  9.278476867441743  13.264513132558257
H  16.66021034233127  10.459676045002414  13.268967654080372
M  16.257302419459904  9.70556063624004  12.989207342154437
O  16.37311  12.87594  9.63213
H  16.14533671479212  11.9711750444028  9.846026109522372
H  16.697541785071028  13.25714881917348  10.448007253647868
M  16.385483454167286  12.808918497832977  9.763953414701417
O  14.04646  14.01471  8.58016
H  13.364384987975294  13.343156490043452  8.57553385294893
H  14.843024528364365  13.624834518958378  8.94031816169319
M  14.06111603940749  13.878834283011457  8.625672387367947
O  10.25237  15.71263  10.25237
H  11.163260612746084  15.920608522462134  10.044391477537866
H  9.68745415151052  16.23986050770116  9.68745415151052
M  10.296658944010376  15.80674562615785  10.153430195547609
O  9.64929  16.31571  12.8937
H  9.857268522462135  16.107731477537865  11.982809387253917
H  8.954076908623403  16.97366941940107  12.8937
M  9.586918096693875  16.373312983827706  12.777095011673259
O  12.8937  16.31571  9.64929
H  13.28963969000778  15.52538310913989  9.282074794078545
H  12.8937  16.97366941940107  8.954076908623403
M  12.944385057333356  16.2987653666397  9.513286359748443
O  7.05763  7.05763  15.71263
H  7.2421763727430175  7.253161069945153  14.793966798933637
H  7.285403101830239  6.152865772818616  15.926529385916615
M  7.110411867379837  6.96683959897572  15.622411728685403
O  3.33321  8.7438  13.97679
H  3.704023132558256  8.372986867441744  14.777556558645317
H  3.125231477537866  9.654690612746084  14.184768522462134
M  3.3540547946918746  8.812936433498841  14.105921540891156
O  4.4163  7.66071  16.31571
H  5.327190612746083  7.452731477537866  16.107731477537865
H  4.041032345919628  6.850323954997586  16.66021034233127
M  4.484866201000207  7.530347048796031  16.333186440079007
O  8.77879  3.34441  13.98761
H  8.399691824558884  2.5475741706607056  13.61670694735905
H  9.688478070811012  3.1300085066653667  14.19432587621666
M  8.846711908174434  3.214959422119439  13.966592060499407
O  7.71811  4.43406  16.33288
H  8.081344686556879  4.060904405280855  15.529731629764632
H  6.902491326174831  4.059371387009899  16.665455498501053
M  7.660199391616853  4.33832691867285  16.272640994956312
O  1.59737  1.59737  15.71263
H  1.3893914775378662  1.3893914775378662  14.801739387253917
H  2.5082606127460836  1.3893914775378662  15.920608522462134
M  1.6873512281907148  1.5441224797279467  15.622648771809285
O  0.99429  0.99429  13.0713
H  0.31427631523035815  0.3206333897555711  13.0713
H  0.6497896576687319  1.8046760450024133  12.696032345919628
M  0.8631398437693465  1.0117930172896523  13.023261212673466
O  4.2387  0.99429  16.31571
H  4.2387  0.3206333897555711  16.99572368476964
H  4.5950248161636225  0.648873547208875  15.497204080945558
M  4.28431387552785  0.8638363528149435  16.297981323102736
O  0.93689  4.22094  16.33288
H  1.1646631018302391  3.3161757728186156  16.118980614083384
H  0.2751284606056871  4.22094  17.02447489947401
M  0.8813342439212993  4.105119262940382  16.394030789131715
O  7.05763  1.59737  10.25237
H  7.265608522462133  2.5082606127460836  10.044391477537866
H  7.61026967766831  1.0447303223316902  9.69973032233169
M  7.154998306475282  1.6432304419874868  10.15500169352472
O  7.66071  0.99429  12.8937
H  7.452731477537866  1.202268522462134  11.982809387253917
H  6.8429255402825815  0.6549718327884289  13.257463108141646
M  7.529399962450637  0.9774769408592582  12.82366107831729
O  4.4163  0.99429  9.64929
H  5.327190612746083  1.202268522462134  9.857268522462135
H  4.042943996756682  1.7977421766967334  9.286934187843693
M  4.485110915371417  1.1237653324037205  9.629527844357145
O  3.32578  3.34106  8.5909
H  4.005192047660052  4.015270963452936  8.582492488225407
H  2.516600357811571  3.7112877412990777  8.943591885702505
M  3.3091681822543393  3.4747607553612307  8.634972553653743
O  1.59737  7.05763  10.25237
H  1.3893914775378662  7.265608522462133  11.163260612746084
H  1.0447303223316902  7.61026967766831  9.69973032233169
M  1.5000016935247187  7.154998306475282  10.298230441987489
O  0.99429  7.66071  12.8937
H  0.33307711294818176  8.352829468008666  12.8937
H  1.7950565586453182  8.031523132558256  13.264513132558257
M  1.0121545536790157  7.796778197154392  12.941168554827902
O  0.93689  4.43406  9.63213
H  1.1646632852078804  5.338824955597199  9.846026109522372
H  0.29134826020269955  4.43406  8.925371411669108
M  0.8834105974361496  4.54988083030563  9.569037656326703
O  7.05763  15.71263  7.05763
H  7.265608522462133  14.801739387253917  7.265608522462133
H  6.146739387253916  15.920608522462134  7.265608522462133
M  6.967648771809285  15.622648771809285  7.110877520272053
O  7.66071  16.31571  4.4163
H  7.452731477537866  16.107731477537865  5.327190612746083
H  8.031523132558256  15.514943441354681  4.045486867441743
M  7.681554794691874  16.186578459108844  4.4854364334988395
O  4.4163  16.31571  7.66071
H  4.4163  16.97366941940107  8.355923091376598
H  4.059975183836377  16.661126452791123  6.842204080945558
M  4.370686124472149  16.4441542173705  7.64492703052927
O  8.7438  13.97679  3.33321
H  8.392600683045536  13.599855674746442  2.5264811767784887
H  9.654690612746084  14.184768522462134  3.125231477537866
M  8.815447238536812  13.955161618790935  3.2033152173083677
O  3.32578  13.96894  8.7191
H  3.6991360032433183  14.772392176696734  8.356744187843693
H  2.516599302738361  13.598711775968349  8.366411041696033
M  3.2699891809407213  14.02439789278812  8.627565642365928
O  1.59737  10.25237  7.05763
H  2.50705807081101  10.037968506665367  7.26434587621666
H  1.0447303223316902  9.69973032233169  7.61026967766831
M  1.6430765021111289  10.154179475759896  7.154836672522034
O  0.99429  9.64929  4.4163
H  1.202268522462134  9.857268522462135  5.327190612746083
H  1.7950565586453182  9.278476867441745  4.045486867441743
M  1.1234215408911576  9.628445205308125  4.4854364334988395
O  3.33321  8.5662  3.33321
H  4.003025893332905  8.560040071735626  4.016979379485818
H  3.125231477537866  7.655309387253917  3.125231477537866
M  3.392330755539338  8.448806466535883  3.3941169701157214
O  0.93689  12.87594  7.67788
H  0.29134826020269955  12.87594  8.38463858833089
H  1.1646631018302391  11.971175772818617  7.463980614083385
M  0.883410573961599  12.760119262940382  7.740971924255304
O  7.05763  10.25237  1.59737
H  6.146739387253916  10.044391477537866  1.3893914775378662
H  7.61026967766831  9.69973032233169  1.0447303223316902
M  7.011769558012514  10.15500169352472  1.5000016935247187
O  4.4163  9.64929  0.99429
H  4.4163  8.957170531991334  0.33307711294818176
H  4.045486867441743  9.278476867441745  1.7950565586453182
M  4.368831445172098  9.513221802845608  1.0121545536790157
O  7.71811  12.87594  0.97713
H  7.49033671479212  11.9711750444028  1.1910261095223713
H  6.902492333838955  13.250628150077363  0.6445515087567844
M  7.58454336971295  12.8080837735168  0.9619372232367965
O  1.59737  15.71263  1.59737
H  1.3893914775378662  15.920608522462134  2.5082606127460836
H  1.3695967147921198  14.807865044402801  1.383473890477629
M  1.5415885112726786  15.623432929830395  1.6865937056513165
O  0.99429  16.31571  4.2387
H  1.8120744597174179  16.655028167211572  4.602463108141646
H  0.6497896576687319  15.505323954997586  4.613967654080372
M  1.0548760771983035  16.255407628208825  4.333304853970564
O  4.2387  16.31571  0.99429
H  3.3278093872539163  16.107731477537865  1.202268522462134
H  4.595025922006851  16.66112752478058  1.8127949852508078
M  4.167709028762385  16.333303850498325  1.1256922735107773
O  0.93689  13.08906  0.97713
H  1.752507666161045  12.714371849922637  0.6445515087567844
H  0.6124582149289699  12.70785118082652  1.793007253647867
M  0.9997677189371774  12.992296068038959  1.0389980725873638
O  15.71263  7.05763  7.05763
H  14.80294118621544  7.2720281781515235  7.264346045048629
H  15.920608522462134  7.265608522462133  6.146739387253916
M  15.622802616576065  7.111699313653441  6.967487159468567
O  16.31571  7.66071  4.4163
H  16.976922887051817  8.352829468008666  4.4163
H  15.514943441354681  8.031523132558256  4.045486867441743
M  16.297845446320984  7.796778197154392  4.368831445172098
O  13.97679  8.7438  3.33321
H  13.605976867441743  8.372986867441744  2.5324434413546815
H  14.184768522462134  9.654690612746084  3.125231477537866
M  13.955945205308124  8.812936433498841  3.2040784591088425
O  16.37311  4.43406  7.67788
H  16.145336898169763  5.338824227181384  7.463980614083385
H  15.576544399628778  4.044183994268697  8.038035222730755
M  16.24198228747177  4.499971904472002  7.696602511688881
O  14.04646  3.29529  8.72984
H  13.364384987975294  3.9668435099565484  8.73446614705107
H  14.231006372743018  3.099758930054847  9.648503201066363
M  13.982770331488911  3.3562266155321976  8.848032176045017
O  10.25237  1.59737  7.05763
H  10.044391477537866  2.5082606127460836  7.265608522462133
H  10.044391477537866  1.3893914775378662  6.146739387253916
M  10.199122479727949  1.6873512281907148  6.967648771809285
O  9.64929  0.99429  4.4163
H  8.954076908623403  0.3363305805989284  4.4163
H  10.46707335169813  0.6549722925319104  4.0525339720589955
M  9.664980472131347  0.8666264956122117  4.369733559586424
O  12.8937  0.99429  7.66071
H  13.28963969000778  1.7846168908601094  8.027925205921456
H  11.982809387253917  1.202268522462134  7.452731477537866
M  12.827780069006614  1.122085137460059  7.681094216673379
O  8.5662  3.33321  3.33321
H  8.5662  4.010052610951763  4.010052610951763
H  8.937013132558256  2.5324434413546815  3.704023132558256
M  8.613668554827902  3.3173462395527955  3.4673225751358276
O  15.71263  1.59737  1.59737
H  15.920608522462134  1.3893914775378662  2.5082606127460836
H  16.244212191765058  1.0344969177699743  1.0344969177699743
M  15.807302694221098  1.498691694274793  1.641920442737561
O  16.31571  0.99429  4.2387
H  16.99572368476964  0.3206333897555711  4.2387
H  16.66021034233127  1.8046760450024133  4.613967654080372
M  16.446860156230652  1.0117930172896523  4.2867387873265335
O  13.0713  0.99429  0.99429
H  13.982190612746084  1.202268522462134  1.202268522462134
H  12.71497407799315  0.648872475219421  1.812794985250808
M  13.142290971237617  0.9766961495016762  1.1256922735107773
O  16.37311  4.22094  0.97713
H  16.14533671479212  3.3161750444027995  1.1910261095223713
H  15.557492333838955  4.595628150077363  0.6445515087567846
M  16.23954336971295  4.153083773516802  0.9619372232367965
O  10.25237  7.05763  1.59737
H  11.163260612746084  7.265608522462133  1.3893914775378662
H  10.02459671479212  6.1528650444028  1.383473890477629
M  10.339817259735447  6.968432929830396  1.5433649571885484
O  12.8937  7.66071  0.99429
H  12.8937  8.352829468008666  0.33307711294818176
H  13.268967654080372  6.850323954997586  0.6497896576687318
M  12.941738787326535  7.645570451258549  0.8655465727088524
O  9.59189  4.43406  0.97713
H  8.913541248774077  4.43406  0.3017968883356651
H  9.240690683045536  4.057125674746443  1.7838588232215113
M  9.460095425775467  4.3858078586549105  0.9939502363685785
O  11.38513  2.73013  14.57987
H  11.593108522462135  2.9381085224621337  15.490760612746083
H  11.61290310183024  1.8253657728186161  14.365970614083384
M  11.440911465252771  2.6409330230764088  14.669093286233323
O  11.98821  3.33321  17.2212
H  12.363477654080373  2.5228239549975866  17.56570034233127
H  11.172592333838955  3.7078981500773627  17.553778491243214
M  11.93183988563078  3.277435412754491  17.307874259653662
O  12.04561  0.10656  13.95962
H  12.401934816163623  -0.2388564527911255  14.77812591905444
H  11.227825540282582  -0.23275816721157178  13.595856891858354
M  11.986537598114515  0.018905707316464418  14.01783256626885
O  2.73013  11.38513  14.57987
H  2.9381085224621337  11.593108522462135  15.490760612746083
H  3.2827496938396683  11.941510282359427  14.03097629864955
M  2.8274957483041105  11.482977149006139  14.626209972151377
O  3.33321  11.98821  17.2212
H  3.708477654080372  11.177823954997587  17.56570034233127
H  4.010052610951764  12.665052610951763  17.2212
M  3.467892807634461  11.971114829239987  17.265300200215034
O  0.0888  11.98821  13.97679
H  0.9996906127460835  11.780231477537866  14.184768522462134
H  0.0888  12.665052610951763  13.299947389048237
M  0.20540498832674148  12.048230260171902  13.916769739828098
O  14.57987  5.92487  14.57987
H  15.490760612746083  5.7168914775378665  14.371891477537865
H  14.027249160817561  5.368488564503722  14.030978620639385
M  14.625732853540965  5.8270227033784305  14.482981520931324
O  13.97679  5.32179  17.2212
H  13.299947389048237  4.6449473890482365  17.2212
H  14.184768522462134  5.529768522462134  16.310309387253916
M  13.916769739828098  5.2617697398281  17.104595011673258
O  17.2212  5.32179  13.97679
H  17.545630784664432  4.940582356308809  14.792668200685268
H  17.56570034233127  6.132176045002414  13.601522345919628
M  17.306831254909497  5.376730013405249  14.03319346593167
O  5.92487  14.57987  14.57987
H  6.834558813784561  14.365471821848477  14.373153954951372
H  5.369721658934818  14.028499360352367  14.028478508274624
M  5.970255458038884  14.48184235232092  14.482823088725496
O  5.32179  13.97679  17.2212
H  4.946522345919628  14.787176045002413  17.56570034233127
H  5.529768522462134  14.184768522462134  16.310309387253916
M  5.300374972809493  14.107152951203966  17.148695211888292
O  5.26439  17.20344  13.95962
H  5.492163101830239  16.298675772818616  14.173519385916615
H  4.601921825022084  17.20344  13.268701946145976
M  5.2087437860410395  17.087619262940382  13.898555855273782
O  2.73013  2.73013  5.92487
H  2.933812417388991  2.9390374108208785  6.83651851041983
H  1.8192393872539165  2.9381085224621337  5.7168914775378665
M  2.639598818527415  2.783496429189011  6.01494824823699
O  0.0888  3.33321  5.32179
H  -0.2356307846644315  3.7144176436911907  6.137668200685269
H  0.0888  4.010052610951763  4.6449473890482365
M  0.0472689453055358  3.46865319797062  5.3395882329502795
O  3.39061  0.10656  5.30462
H  3.162836898169761  1.0113242271813838  5.518519385916615
H  4.053078174977915  0.10656  4.6137019461459765
M  3.4462562139589603  0.22238073705961808  5.243555855273783
O  2.73013  14.57987  11.38513
H  2.933812417388991  14.370962589179122  10.473481489580172
H  2.9579032852078804  15.4846349555972  11.59902610952237
M  2.7853615354454515  14.668948161252647  11.295809274302409
O  0.0888  13.97679  11.98821
H  -0.25570034233126815  14.787176045002413  12.363477654080373
H  0.9996906127460835  14.184768522462134  11.780231477537866
M  0.16130478811170892  14.107152951203966  12.00962502719051
O  3.39061  17.20344  12.00537
H  2.572826648301872  17.54275770746809  12.369136027941003
H  3.746935922006851  17.54885752478058  11.186865014749191
M  3.331537881515627  17.29109437105841  11.947157927038825
O  14.57987  2.73013  11.38513
H  15.490760612746083  2.9381085224621337  11.593108522462135
H  14.35209671479212  1.8253650444027998  11.599026109522372
M  14.667317259735446  2.640932929830396  11.43913504281145
O  17.2212  3.33321  11.98821
H  17.54563178507103  3.7144188191734804  11.172332746352133
H  17.2212  4.010052610951764  12.665052610951763
M  17.26273118275858  3.468653348446536  11.970411888281935
O  13.91939  0.10656  12.00537
H  13.563064077993149  -0.23885752478057976  11.186865014749191
H  13.256921825022085  0.10656  12.696288053854023
M  13.788972063835171  0.062342389365649314  11.989037333444884
O  14.57987  14.57987  5.92487
H  14.395323627256982  14.384338930054845  6.843533201066364
H  14.35209689816976  15.484634227181383  5.710970614083386
M  14.527088132620161  14.670660401024278  6.015088271314598
O  17.2212  13.97679  5.32179
H  17.545630784664432  13.595582356308809  6.137668200685268
H  16.310309387253916  14.184768522462134  5.529768522462134
M  17.14612606636772  13.954614582473331  5.452856013394232
O  13.91939  17.20344  5.30462
H  13.563065183836377  17.548856452791124  6.123125919054442
H  14.737174459717417  17.54275816721157  4.9408568918583535
M  13.978462401885485  17.291094292683535  5.362832566268851
O  5.92487  2.73013  2.73013
H  6.835760612746084  2.9381085224621337  2.9381085224621337
H  5.369721658934818  3.281500639647634  3.281521491725375
M  5.970409302805663  2.8273358542976914  2.8273385236152224
O  5.32179  3.33321  0.0888
H  4.946522345919628  2.5228239549975866  -0.25570034233126815
H  5.529768522462134  3.125231477537866  0.9996906127460835
M  5.300374972809493  3.2028470487960314  0.16130478811170892
O  5.26439  0.10656  3.35037
H  6.082173351698128  -0.23275770746809027  3.7141360279410036
H  5.49216328520788  1.0113249555972001  3.1364738904776286
M  5.3982338641647925  0.17894406988157474  3.3695551577381506
O  2.73013  5.92487  2.73013
H  2.9381085224621337  5.7168914775378665  1.8192393872539165
H  1.8192393872539165  5.7168914775378665  2.9381085224621337
M  2.6401487718092853  5.871622479727947  2.640148771809285
O  3.33321  5.32179  0.0888
H  2.5175913261748297  4.947101387009899  -0.24377549850105562
H  4.010052610951763  4.6449473890482365  0.0888
M  3.315444989619005  5.187181316611225  0.04622632366847547
O  0.0888  5.32179  3.33321
H  -0.25570034233126815  6.132176045002414  3.708477654080372
H  -0.23563178507102883  4.940581180826519  2.5173327463521327
M  0.0031686170263888758  5.376729862929333  3.276806655300542
O  14.57987  11.38513  2.73013
H  14.371891477537865  11.593108522462135  1.8192393872539165
H  15.490760612746083  11.593108522462135  2.9381085224621337
M  14.669851228190716  11.438377520272052  2.640148771809285
O  13.97679  11.98821  0.0888
H  14.79240867382517  12.3628986129901  -0.24377549850105557
H  13.601522345919628  11.177823954997587  -0.25570034233126826
M  14.033160243362387  11.932435472012909  0.002126123453442909
O  17.2212  11.98821  3.33321
H  17.56570034233127  11.177823954997587  3.708477654080372
H  17.2212  12.665052610951763  4.010052610951764
M  17.265300200215034  11.971114829239987  3.467892807634461
O  11.38513  14.57987  2.73013
H  11.593108522462135  14.371891477537865  1.8192393872539165
H  11.940278341065182  14.028499360352365  3.2815214917253757
M  11.482819445657105  14.482664145702309  2.684109775152454
O  11.98821  13.97679  0.0888
H  12.363477654080373  14.787176045002413  -0.25570034233126815
H  12.665052610951763  13.299947389048237  0.0888
M  12.122892807634463  13.993885170760013  0.04469979978496745
O  12.04561  17.20344  3.35037
H  12.708078174977915  17.20344  4.041288053854022
H  11.81783671479212  16.2986750444028  3.1364738904776286
M  12.101256190484408  17.08761916969437  3.4114345641442094
O  0.0  0.0  0.0
H  0.5628730822300256  0.5628730822300256  -0.531582191765057
H  0.5649158484894797  -0.5272305077011596  0.5649158484894797
M  0.14437058990554583  0.004562679567356537  0.004267110231294474
O  4.32748  4.31665  4.31671
H  3.7748464680558955  3.7677633119855005  4.873083456494338
H  3.7748603061603325  4.873030282359427  3.7678162986495503
M  4.185994252219508  4.317609270486367  4.317667498901663
O  8.655  8.655  0.0
H  8.092126917769974  8.092126917769974  -0.5315821917650572
H  9.20763967766831  8.10236032233169  0.5526396776683097
M  8.653690000750073  8.512200908071565  0.0026956122541837435
O  0.0  8.655  8.655
H  -0.5315821917650567  9.217873082230025  9.217873082230025
H  -0.5315821917650572  8.092126917769974  8.092126917769974
M  -0.13609786817014188  8.655  8.655
O  8.655  0.0  8.655
H  8.090084151510519  -0.5272305077011596  8.090084151510519
H  9.20763967766831  0.5526396776683097  8.10236032233169
M  8.653428502022887  0.0032526803174308533  8.511939409344379
O  12.98252  12.99335  4.31671
H  13.535153531944104  13.5422366880145  4.873083456494338
H  13.535139693839668  12.436969717640572  3.7678162986495503
M  13.124005747780492  12.992390729513634  4.317667498901663
O  4.32748  12.99335  12.99329
H  4.877637143627598  12.43946289570814  12.439423560310157
H  3.7748464680558955  13.5422366880145  12.436916543505662
M  4.327162992417862  12.992709886386475  12.851165898244076
O  12.98252  4.31665  12.9933
H  12.427370497855723  3.7652782071742408  13.544689169593553
H  13.535152370935645  3.767764465122346  12.43692425268878
M  12.982197776836106  4.175803787449304  12.992661657889078
