544

O	5.92487	5.92487	5.92487
H	5.7168914775378665	5.7168914775378665	6.835760612746084
H	5.697096898169761	6.8296342271813835	5.710970614083386
M	5.869088534747229	6.0140669769235915	6.014093286233323
O	5.32179	5.32179	8.5662
H	6.122556558645318	4.950976867441743	8.937013132558256
H	4.642377952339948	4.647579036547064	8.574607511774593
M	5.3373248415482895	5.188014307494849	8.61474481777168
O	7.66071	4.2387	9.64929
H	8.337552610951763	4.2387	8.972447389048238
H	7.452731477537866	3.3278093872539163	9.857268522462135
M	7.7207302601719	4.122095011673259	9.589269739828099
O	9.64929	4.2387	7.66071
H	9.278476867441745	4.609513132558257	6.859943441354682
H	10.450056558645318	4.609513132558257	8.031523132558256
M	9.70432922592723	4.333637109655802	7.60567077407277
O	8.5662	5.32179	5.32179
H	7.655309387253917	5.529768522462134	5.529768522462134
H	8.5662	4.6449473890482365	4.6449473890482365
M	8.449595011673258	5.2617697398281	5.2617697398281
O	4.2387	7.66071	9.64929
H	4.609513132558257	6.859943441354682	9.278476867441745
H	4.5898993169544635	8.037644325253558	10.456018823221513
M	4.331126304617832	7.606454360589958	9.705092467727704
O	4.20371	9.63809	7.64989
H	4.215619397457575	8.965057580890011	8.330417272840078
H	3.2940219291889896	9.852491493334634	7.44317412378334
M	4.0887834981110665	9.579379708118635	7.710543575302298
O	5.26439	8.54844	5.30462
H	4.901155313443121	8.921595594719145	6.107768370235368
H	4.594574106667094	8.554599928264373	4.620850620514182
M	5.132147062018861	8.596996963383676	5.319901951123466
O	7.59104	9.68721	4.25266
H	6.794474399628777	9.297333994268698	4.612815222730754
H	7.986979690007779	10.47753689086011	4.619875205921455
M	7.53975504992187	9.738472544736418	4.345772190591704
O	9.65672	7.66856	4.2634
H	9.283363996756682	6.8651078233032665	4.6257558121563065
H	8.972133838220559	8.337559968763829	4.259840661003877
M	9.521290638804867	7.651348495218699	4.309330277443952
O	11.38513	11.38513	5.92487
H	10.474239387253917	11.593108522462135	5.7168914775378665
H	11.61290310183024	10.480365772818617	5.710970614083386
M	11.297682716790003	11.295933023076408	5.870864537770555
O	11.98821	11.98821	8.5662
H	11.780231477537866	11.780231477537866	7.655309387253917
H	12.670285012024706	12.659763509956548	8.57082614705107
M	12.048900070638156	12.04755319143151	8.45018721431026
O	9.64929	13.0713	9.64929
H	10.450056558645318	12.700486867441745	9.278476867441745
H	9.857268522462135	13.982190612746084	9.857268522462135
M	9.778421540891157	13.140436433498841	9.628445205308125
O	7.66071	13.0713	7.66071
H	8.337552610951763	13.0713	8.337552610951763
H	6.859943441354682	12.700486867441745	8.031523132558256
M	7.644846239552796	13.0238314451721	7.794822575135828
O	8.7438	11.98821	5.32179
H	8.372986867441744	12.359023132558256	6.122556558645318
H	8.7438	12.665052610951763	4.6449473890482365
M	8.696331445172099	12.12232257513583	5.337653760447204
O	13.0713	9.64929	9.64929
H	12.700486867441745	10.450056558645318	9.278476867441745
H	12.720100683045537	9.272355674746443	10.45601882322151
M	12.97887369538217	9.703545639410041	9.705092467727704
O	13.10629	7.6719	7.64989
H	13.094380632318382	8.344934140038754	8.330415571381208
H	12.743055820055632	8.045058498810366	6.846742749935769
M	13.058267099796971	7.805825280086875	7.63419294569802
O	12.04561	8.76156	5.30462
H	11.236429302738362	8.391331775968348	4.9519310416960325
H	12.715425893332904	8.755400071735627	4.620850620514182
M	12.027769623660763	8.713377775383051	5.171940827893062
O	5.92487	11.38513	11.38513
H	6.835760612746084	11.593108522462135	11.593108522462135
H	5.69709671479212	10.4803650444028	11.59902610952237
M	6.012317259735447	11.295932929830395	11.43913504281145
O	5.32179	11.98821	8.7438
H	4.942691824558883	11.191374170660707	8.37289694735905
H	5.529768522462134	11.780231477537866	9.654690612746084
M	5.2998846198600775	11.859581639884263	8.81292492264337
O	8.5662	11.98821	11.98821
H	8.937013132558256	12.359023132558256	11.187443441354683
H	8.939556003243318	11.184757823303267	12.350565812156306
M	8.661462627783225	11.932826982560208	11.93208813502375
O	5.26439	8.76156	12.00537
H	6.060954528364366	8.371684518958379	12.36552816169319
H	4.594575840438457	8.755400087680167	12.689141078015936
M	5.280615576449961	8.710862691482712	12.139005537689044
O	7.59104	7.62279	13.05734
H	7.986979690007779	6.832463109139891	12.690124794078544
H	7.406493627256982	7.427258930054847	13.976003201066364
M	7.618100895070262	7.4965882866406295	13.12793199659861
O	9.65672	9.64144	13.0466
H	8.972133838220559	8.97244003123617	13.050159338996123
H	9.860402417388991	9.850347410820879	13.958248510419828
M	9.595158518614348	9.58254260156659	13.163757646707944
O	11.38513	5.92487	11.38513
H	10.474239387253917	5.7168914775378665	11.593108522462135
H	11.93528599821431	5.370984048887111	11.93899873064706
M	11.338951617076809	5.827342155487523	11.482655640085085
O	11.98821	5.32179	8.7438
H	12.367309293320588	6.118624788410171	8.372895853645247
H	11.780231477537866	5.529768522462134	9.654690612746084
M	12.010115523241984	5.450418226864251	8.812924782634807
O	8.7438	5.32179	11.98821
H	8.372986867441744	4.950976867441743	11.187443441354683
H	8.755709397457576	4.648757580890011	12.668737272840078
M	8.69785599173355	5.188165175389884	11.972817920729947
O	12.04561	8.54844	12.00537
H	11.236430357811571	8.918667741299076	12.358061885702504
H	11.81783671479212	7.6436750444028	11.791473890477628
M	11.912867514456202	8.480012787378348	12.023137533922096
O	15.71263	15.71263	15.71263
H	15.920608522462134	15.920608522462134	14.801739387253917
H	14.801739387253917	15.920608522462134	15.920608522462134
M	15.622648771809285	15.765877520272053	15.622648771809285
O	16.31571	16.31571	13.0713
H	16.99572368476964	16.989366610244428	13.0713
H	16.66021034233127	15.505323954997586	12.696032345919628
M	16.446860156230652	16.298206982710347	13.023261212673466
O	13.0713	16.31571	16.31571
H	12.714975183836378	16.661126452791123	15.497204080945558
H	12.696032345919628	15.505323954997586	16.66021034233127
M	12.977647337145616	16.256188282338826	16.25503156730215
O	16.37311	13.08906	16.33288
H	16.145336898169763	13.993824227181383	16.118980614083384
H	16.697540784664433	12.707852356308809	15.51700179931473
M	16.38548334957772	13.156081559396924	16.201056044648375
O	10.25237	10.25237	15.71263
H	11.163260612746084	10.044391477537866	15.920608522462134
H	9.689496917769976	9.689496917769976	16.244212191765058
M	10.296920442737562	10.153691694274794	15.807302694221098
O	13.97679	8.5662	13.97679
H	13.306975840438456	8.560040087680168	13.293018921984062
H	14.777556558645317	8.937013132558256	13.605976867441743
M	13.993553487023418	8.61288001173162	13.841790497488002
O	12.8937	9.64929	16.31571
H	13.264513132558257	9.278476867441745	15.514943441354681
H	13.268967654080372	10.459676045002414	16.66021034233127
M	12.989207342154437	9.70556063624004	16.257302419459904
O	8.53121	13.9656	13.98761
H	8.54311936768162	13.292565859961247	13.307084428618793
H	7.621521186215439	14.179998178151523	14.194326045048628
M	8.416283399189807	13.906889063435555	13.926956664117494
O	9.59189	12.87594	16.33288
H	9.819663101830239	11.971175772818617	16.118980614083384
H	9.228655820055632	13.249098498810367	15.52973274993577
M	9.574549347663485	12.807888052945398	16.202685759926787
O	15.71263	10.25237	10.25237
H	14.801739387253917	10.044391477537866	10.044391477537866
H	16.244212191765058	9.689496917769976	9.689496917769976
M	15.66407394575833	10.153691694274794	10.153691694274794
O	16.31571	9.64929	12.8937
H	16.107731477537865	9.857268522462135	11.982809387253917
H	16.976922887051817	8.957170531991334	12.8937
M	16.373729466940087	9.587314117809536	12.777095011673259
O	16.37311	12.87594	9.63213
H	16.14533671479212	11.9711750444028	9.846026109522372
H	16.697541785071028	13.25714881917348	10.448007253647868
M	16.385483454167286	12.808918497832977	9.763953414701417
O	14.04646	14.01471	8.58016
H	14.843024528364365	13.624834518958378	8.94031816169319
H	13.65052030999222	14.805036890860109	8.947375205921455
M	14.097744812848317	14.065972611903025	8.673272566814354
O	10.25237	15.71263	10.25237
H	10.044391477537866	15.920608522462134	11.163260612746084
H	9.68745415151052	16.23986050770116	9.68745415151052
M	10.153430195547609	15.80674562615785	10.296658944010376
O	9.64929	16.31571	12.8937
H	9.270190706679413	15.518875211589828	13.264604146354754
H	10.467074459717418	16.655028167211572	13.257463108141646
M	9.705446994035327	16.25714235254854	12.987746272335967
O	12.8937	16.31571	9.64929
H	11.982809387253917	16.107731477537865	9.857268522462135
H	12.8937	16.97366941940107	8.954076908623403
M	12.777095011673259	16.373312983827706	9.586918096693875
O	7.05763	7.05763	15.71263
H	6.146739387253916	7.265608522462133	15.920608522462134
H	7.620503082230025	7.620503082230025	16.244212191765058
M	7.013079557262439	7.156308305725207	15.807302694221098
O	3.33321	8.7438	13.97679
H	3.704023132558256	8.372986867441744	14.777556558645317
H	2.5324434413546815	8.372986867441742	13.605976867441743
M	3.27817077407277	8.648862890344198	14.031829225927229
O	4.4163	7.66071	16.31571
H	4.4163	8.352829468008666	16.976922887051817
H	4.041032345919628	6.850323954997586	16.66021034233127
M	4.368261212673466	7.645570451258549	16.444453427291148
O	8.77879	3.34441	13.98761
H	8.415555313443122	3.7175655947191446	14.790758370235368
H	8.399691824558884	2.5475741706607056	13.61670694735905
M	8.683762437418277	3.29017381826659	14.042942615691842
O	7.71811	4.43406	16.33288
H	7.490336898169761	5.338824227181384	16.118980614083384
H	8.396458751225921	4.43406	17.008213111664336
M	7.775789119317857	4.549880737059618	16.391949084093607
O	1.59737	1.59737	15.71263
H	2.5082606127460836	1.3893914775378662	15.920608522462134
H	1.3695968981697608	2.502134227181384	15.926529385916615
M	1.6848172832099972	1.6865669769235914	15.766635462229445
O	0.99429	0.99429	13.0713
H	1.202268522462134	1.202268522462134	13.982190612746084
H	1.8120733516981282	0.6549722925319105	12.707533972058997
M	1.1255998957095255	0.9774769997119707	13.141338547913167
O	4.2387	0.99429	16.31571
H	4.5950248161636225	0.648873547208875	15.497204080945558
H	4.613967654080372	1.8046760450024133	16.66021034233127
M	4.332352662854384	1.053811717661175	16.25503156730215
O	0.93689	4.22094	16.33288
H	0.2751284606056871	4.22094	17.02447489947401
H	1.7525086738251698	4.595628612990101	16.665455498501053
M	0.9565855694934766	4.268904663080848	16.46398616755666
O	7.05763	1.59737	10.25237
H	6.146739387253916	1.3893914775378662	10.044391477537866
H	7.61026967766831	1.0447303223316902	9.69973032233169
M	7.011769558012514	1.5000016935247187	10.15500169352472
O	7.66071	0.99429	12.8937
H	8.355923091376598	0.3363305805989284	12.8937
H	7.452731477537866	1.202268522462134	11.982809387253917
M	7.723081903306125	0.9366870161722944	12.777095011673259
O	4.4163	0.99429	9.64929
H	4.042943996756682	1.7977421766967334	9.286934187843693
H	4.4163	0.3363305805989284	8.954076908623403
M	4.3685059270446756	1.0129148283039615	9.513908420778968
O	3.32578	3.34106	8.5909
H	2.516600357811571	3.7112877412990777	8.943591885702505
H	3.122097582611009	3.1321525891791215	7.67925148958017
M	3.196121436193341	3.361710948630997	8.519346808224505
O	1.59737	7.05763	10.25237
H	2.5082606127460836	7.265608522462133	10.044391477537866
H	1.3695967147921195	6.1528650444028	10.03847389047763
M	1.6848172597354467	6.968432929830396	10.19836495718855
O	0.99429	7.66071	12.8937
H	1.202268522462134	7.452731477537866	11.982809387253917
H	0.6497896576687318	6.850323954997586	13.268967654080372
M	0.9768135599209942	7.530347048796031	12.825133798999794
O	0.93689	4.43406	9.63213
H	0.29134826020269955	4.43406	8.925371411669108
H	0.6124582149289701	4.052851180826519	10.448007253647868
M	0.8127216860862762	4.385260671861391	9.646098505677271
O	7.05763	15.71263	7.05763
H	7.265608522462133	14.801739387253917	7.265608522462133
H	6.146739387253916	15.920608522462134	7.265608522462133
M	6.967648771809285	15.622648771809285	7.110877520272053
O	7.66071	16.31571	4.4163
H	7.452731477537866	16.107731477537865	5.327190612746083
H	8.355923091376598	16.97366941940107	4.4163
M	7.723081903306125	16.373312983827706	4.532904988326741
O	4.4163	16.31571	7.66071
H	4.042943996756682	15.512257823303266	8.023065812156306
H	4.059975183836377	16.661126452791123	6.842204080945558
M	4.322892051516825	16.257075901139075	7.602317282865999
O	8.7438	13.97679	3.33321
H	8.372986867441744	14.777556558645317	3.704023132558256
H	9.654690612746084	14.184768522462134	3.125231477537866
M	8.812936433498841	14.105921540891156	3.3540547946918746
O	3.32578	13.96894	8.7191
H	4.005192047660052	13.294729036547064	8.727507511774592
H	2.516599302738361	13.598711775968349	8.366411041696033
M	3.309168047192239	13.835239182843175	8.675027821088587
O	1.59737	10.25237	7.05763
H	1.3695968981697608	11.157134227181384	7.271529385916614
H	1.0447303223316902	9.69973032233169	7.61026967766831
M	1.497467748544001	10.297446190720365	7.155756248432673
O	0.99429	9.64929	4.4163
H	1.202268522462134	9.857268522462135	5.327190612746083
H	0.6497896576687319	10.459676045002414	4.041032345919628
M	0.9768135599209942	9.779652951203968	4.484866201000207
O	3.33321	8.5662	3.33321
H	2.5324434413546815	8.937013132558256	3.704023132558256
H	3.704023132558256	8.937013132558256	2.5324434413546815
M	3.27817077407277	8.661137109655803	3.27817077407277
O	0.93689	12.87594	7.67788
H	0.29134826020269955	12.87594	8.38463858833089
H	0.6124592153355672	13.25714764369119	6.862001799314732
M	0.8127218141503905	12.924739177662694	7.663911373090517
O	7.05763	10.25237	1.59737
H	7.242176372743018	10.056838930054848	2.5160332010663637
H	7.28540328520788	11.1571349555972	1.3834738904776287
M	7.110411890854388	10.343160494270293	1.6875886907325905
O	4.4163	9.64929	0.99429
H	5.327190612746083	9.857268522462135	1.202268522462134
H	4.041032345919628	10.459676045002414	0.6497896576687319
M	4.484866201000207	9.779652951203968	0.9768135599209942
O	7.71811	12.87594	0.97713
H	8.396458751225921	12.87594	0.3017968883356651
H	8.069309316954463	13.252874325253558	1.7838588232215113
M	7.849904574224532	12.92419214134509	0.9939502363685785
O	1.59737	15.71263	1.59737
H	2.5082606127460836	15.920608522462134	1.389391477537866
H	1.0324541515105201	16.23986050770116	1.0324541515105201
M	1.641658944010376	15.80674562615785	1.4984301955476078
O	0.99429	16.31571	4.2387
H	1.202268522462134	16.107731477537865	3.3278093872539163
H	1.8120744597174179	16.655028167211572	4.602463108141646
M	1.1256000375493627	16.33252305914074	4.168661078317289
O	4.2387	16.31571	0.99429
H	4.2387	16.989366610244428	0.31427631523035815
H	4.613967654080372	15.505323954997586	0.6497896576687319
M	4.2867387873265335	16.298206982710347	0.8631398437693465
O	0.93689	13.08906	0.97713
H	0.2751284606056871	13.08906	0.28553510052598763
H	1.1646632852078804	13.9938249555972	1.191026109522371
M	0.8813342673958499	13.204880830305632	0.9159787914502892
O	15.71263	7.05763	7.05763
H	14.80294118621544	7.2720281781515235	7.264346045048629
H	15.920608522462134	7.265608522462133	6.146739387253916
M	15.622802616576065	7.111699313653441	6.967487159468567
O	16.31571	7.66071	4.4163
H	16.976922887051817	8.352829468008666	4.4163
H	15.514943441354681	8.031523132558256	4.045486867441743
M	16.297845446320984	7.796778197154392	4.368831445172098
O	13.97679	8.7438	3.33321
H	13.605976867441743	8.372986867441744	2.5324434413546815
H	14.184768522462134	9.654690612746084	3.125231477537866
M	13.955945205308124	8.812936433498841	3.2040784591088425
O	16.37311	4.43406	7.67788
H	16.145336898169763	5.338824227181384	7.463980614083385
H	15.576544399628778	4.044183994268697	8.038035222730755
M	16.24198228747177	4.499971904472002	7.696602511688881
O	14.04646	3.29529	8.72984
H	13.364384987975294	3.9668435099565484	8.73446614705107
H	14.231006372743018	3.099758930054847	9.648503201066363
M	13.982770331488911	3.3562266155321976	8.848032176045017
O	10.25237	1.59737	7.05763
H	10.044391477537866	2.5082606127460836	7.265608522462133
H	11.163260612746084	1.3893914775378662	7.265608522462133
M	10.342351228190717	1.6873512281907148	7.110877520272053
O	9.64929	0.99429	4.4163
H	9.857268522462135	1.202268522462134	5.327190612746083
H	9.278476867441745	1.7950565586453182	4.045486867441743
M	9.628445205308125	1.1234215408911576	4.4854364334988395
O	12.8937	0.99429	7.66071
H	13.28963969000778	1.7846168908601094	8.027925205921456
H	13.250024816163624	0.6488735472088749	6.8422040809455575
M	12.989998932861207	1.0512439039172654	7.602939343896524
O	8.5662	3.33321	3.33321
H	8.917399316954464	3.710144325253557	2.5264811767784883
H	7.655309387253917	3.125231477537866	3.125231477537866
M	8.494552761463188	3.3548383812090625	3.2033152173083677
O	15.71263	1.59737	1.59737
H	14.801739387253917	1.3893914775378662	1.3893914775378662
H	16.244212191765058	1.0344969177699743	1.0344969177699743
M	15.66407394575833	1.498691694274793	1.498691694274793
O	16.31571	0.99429	4.2387
H	16.99572368476964	0.3206333897555711	4.2387
H	16.107731477537865	1.202268522462134	3.3278093872539163
M	16.376136195879592	0.9346775863577371	4.122095011673259
O	13.0713	0.99429	0.99429
H	13.0713	0.3206333897555711	0.31427631523035815
H	12.71497407799315	0.648872475219421	1.812794985250808
M	13.025685982910876	0.8638362155873599	1.0120185573591296
O	16.37311	4.22094	0.97713
H	16.14533671479212	3.3161750444027995	1.1910261095223713
H	16.697541785071028	4.602148819173481	1.7930072536478672
M	16.385483454167286	4.1539184978329775	1.1089534147014173
O	10.25237	7.05763	1.59737
H	10.04868758261101	7.266537410820878	2.5090185104198293
H	11.163260612746084	7.265608522462133	1.3893914775378662
M	10.342901181472586	7.110996429189011	1.6874482482369897
O	12.8937	7.66071	0.99429
H	12.8937	8.352829468008666	0.33307711294818176
H	13.268967654080372	6.850323954997586	0.6497896576687318
M	12.941738787326535	7.645570451258549	0.8655465727088524
O	9.59189	4.43406	0.97713
H	9.81966328520788	5.338824955597199	1.191026109522371
H	10.407507666161045	4.059371849922637	0.6445515087567846
M	9.72545663028705	4.501916226483197	0.9619372232367965
O	11.38513	2.73013	14.57987
H	10.475441929188989	2.944531493334633	14.37315412378334
H	11.593108522462135	2.9381085224621337	15.490760612746083
M	11.295302711685643	2.784199738036877	14.670012862143963
O	11.98821	3.33321	17.2212
H	12.363477654080373	2.5228239549975866	17.56570034233127
H	12.665052610951763	4.010052610951764	17.2212
M	12.122892807634463	3.316114829239985	17.265300200215034
O	12.04561	0.10656	13.95962
H	11.81783689816976	1.0113242271813838	14.173519385916615
H	12.708078174977915	0.10656	13.268701946145976
M	12.101256213958958	0.22238073705961808	13.898555855273782
O	2.73013	11.38513	14.57987
H	2.9381085224621337	10.474239387253917	14.371891477537865
H	3.2827496938396683	11.941510282359427	14.03097629864955
M	2.8274957483041105	11.339748400543371	14.48298122368861
O	3.33321	11.98821	17.2212
H	2.5175923338389548	12.362898150077363	17.553778491243214
H	3.125231477537866	11.780231477537866	16.310309387253916
M	3.202177338168217	12.009550843686407	17.147169071111886
O	0.0888	11.98821	13.97679
H	-0.25570034233126826	11.177823954997587	13.601522345919628
H	0.9996906127460835	11.780231477537866	14.184768522462134
M	0.1613047881117089	11.857847048796033	13.95537497280949
O	14.57987	5.92487	14.57987
H	14.371891477537865	6.835760612746084	14.371891477537865
H	14.027249160817561	5.368488564503722	14.030978620639385
M	14.482504105078197	5.970251451841198	14.482981520931324
O	13.97679	5.32179	17.2212
H	14.792407666161044	4.947101849922637	17.553778491243214
H	14.184768522462134	5.529768522462134	16.310309387253916
M	14.107822661831781	5.300449156313594	17.147169071111886
O	17.2212	5.32179	13.97679
H	17.545630784664432	4.940582356308809	14.792668200685268
H	16.310309387253916	5.529768522462134	14.184768522462134
M	17.14612606636772	5.299614582473334	14.107856013394231
O	5.92487	14.57987	14.57987
H	5.7168914775378665	14.371891477537865	15.490760612746083
H	5.369721658934818	14.028499360352367	14.028478508274624
M	5.827180554342895	14.482664145702309	14.625890224847545
O	5.32179	13.97679	17.2212
H	6.137407666161045	13.602101849922636	17.553778491243214
H	4.6449473890482365	13.299947389048237	17.2212
M	5.339554881387829	13.84218137586964	17.263774059438628
O	5.26439	17.20344	13.95962
H	6.082174459717418	17.54275816721157	13.595856891858354
H	5.492163101830239	16.298675772818616	14.173519385916615
M	5.39823398253008	17.13105608221715	13.940435635449386
O	2.73013	2.73013	5.92487
H	1.8192393872539165	2.9381085224621337	5.7168914775378665
H	3.282763531944105	3.2790166880144995	5.368496543505662
M	2.6842687712856668	2.8270178785197735	5.827023724786946
O	0.0888	3.33321	5.32179
H	-0.2356307846644315	3.7144176436911907	6.137668200685269
H	-0.25570034233126815	2.5228239549975866	4.946522345919628
M	0.0031687450905032444	3.2782699865947516	5.378193465931672
O	3.39061	0.10656	5.30462
H	3.162836898169761	1.0113242271813838	5.518519385916615
H	4.053078174977915	0.10656	4.6137019461459765
M	3.4462562139589603	0.22238073705961808	5.243555855273783
O	2.73013	14.57987	11.38513
H	2.933812417388991	14.370962589179122	10.473481489580172
H	2.9579032852078804	15.4846349555972	11.59902610952237
M	2.7853615354454515	14.668948161252647	11.295809274302409
O	0.0888	13.97679	11.98821
H	0.0888	13.299947389048237	12.665052610951763
H	0.9996906127460835	14.184768522462134	11.780231477537866
M	0.20540498832674148	13.916769739828098	12.048230260171902
O	3.39061	17.20344	12.00537
H	3.746935922006851	17.54885752478058	11.186865014749191
H	4.053078174977915	17.20344	12.696288053854023
M	3.5210279361648302	17.247657610634352	11.989037333444884
O	14.57987	2.73013	11.38513
H	15.490760612746083	2.9381085224621337	11.593108522462135
H	14.35209671479212	1.8253650444027998	11.599026109522372
M	14.667317259735446	2.640932929830396	11.43913504281145
O	17.2212	3.33321	11.98821
H	17.56570034233127	2.5228239549975866	12.363477654080373
H	17.2212	4.010052610951764	12.665052610951763
M	17.265300200215034	3.316114829239985	12.122892807634463
O	13.91939	0.10656	12.00537
H	14.737173351698129	-0.23275770746809027	12.369136027941003
H	13.563064077993149	-0.23885752478057976	11.186865014749191
M	13.978462118484373	0.01890562894159316	11.947157927038825
O	14.57987	14.57987	5.92487
H	14.395323627256982	14.384338930054845	6.843533201066364
H	14.027236468055895	14.0309833119855	5.368496543505662
M	14.485502078124497	14.484575545580913	5.971247458330988
O	17.2212	13.97679	5.32179
H	17.56570034233127	14.787176045002413	4.946522345919628
H	16.310309387253916	14.184768522462134	5.529768522462134
M	17.148695211888292	14.107152951203966	5.300374972809493
O	13.91939	17.20344	5.30462
H	14.737174459717417	17.54275816721157	4.9408568918583535
H	14.14716310183024	16.298675772818616	5.518519385916615
M	14.053233982530081	17.13105608221715	5.285435635449388
O	5.92487	2.73013	2.73013
H	5.69709671479212	1.8253650444027998	2.944026109522371
H	5.369721658934818	3.281500639647634	3.281521491725375
M	5.824646585887628	2.684891263856034	2.8280960461546205
O	5.32179	3.33321	0.0888
H	6.13740867382517	3.7078986129901006	-0.24377549850105562
H	5.529768522462134	3.125231477537866	0.9996906127460835
M	5.452822790824948	3.3545509029448217	0.16283131199521694
O	5.26439	0.10656	3.35037
H	6.082173351698128	-0.23275770746809027	3.7141360279410036
H	4.908064077993149	-0.2388575247805796	2.531865014749192
M	5.323462118484372	0.01890562894159318	3.2921579270388253
O	2.73013	5.92487	2.73013
H	2.9381085224621337	6.835760612746084	2.9381085224621337
H	1.8192393872539165	5.7168914775378665	2.9381085224621337
M	2.6401487718092853	6.0148512281907145	2.7833775202720537
O	3.33321	5.32179	0.0888
H	4.010052610951763	4.6449473890482365	0.0888
H	3.125231477537866	5.529768522462134	0.9996906127460835
M	3.3932302601719	5.2617697398281	0.20540498832674148
O	0.0888	5.32179	3.33321
H	-0.25570034233126815	6.132176045002414	3.708477654080372
H	0.0888	4.6449473890482365	4.010052610951763
M	0.04469979978496745	5.338885170760015	3.4678928076344606
O	14.57987	11.38513	2.73013
H	14.371891477537865	11.593108522462135	1.8192393872539165
H	15.490760612746083	11.593108522462135	2.9381085224621337
M	14.669851228190716	11.438377520272052	2.640148771809285
O	13.97679	11.98821	0.0888
H	14.79240867382517	12.3628986129901	-0.24377549850105557
H	13.299947389048237	12.665052610951763	0.0888
M	13.994555010380994	12.122818683388777	0.046226323668475476
O	17.2212	11.98821	3.33321
H	17.54563178507103	12.36941881917348	2.5173327463521327
H	17.2212	12.665052610951763	4.010052610951764
M	17.26273118275858	12.123653348446537	3.315411888281935
O	11.38513	14.57987	2.73013
H	11.61290328520788	15.4846349555972	2.944026109522371
H	11.940278341065182	14.028499360352365	3.2815214917253757
M	11.485353414112375	14.625108736143966	2.8280960461546205
O	11.98821	13.97679	0.0888
H	11.17259132617483	13.602101387009899	-0.24377549850105557
H	11.780231477537866	14.184768522462134	0.9996906127460835
M	11.857177209175052	13.955449097055176	0.16283131199521694
O	12.04561	17.20344	3.35037
H	11.227826648301871	17.54275770746809	3.7141360279410036
H	12.708078174977915	17.20344	4.041288053854022
M	12.025727783502205	17.24687676042406	3.48538228723321
O	0.0	0.0	0.0
H	-0.5548083045364456	-0.5482766914932545	-0.5548083045364456
H	0.5628730822300256	0.5628730822300256	-0.531582191765057
M	0.0010323888463211195	0.0018685141197609528	-0.13907109082793023
O	4.32748	4.31665	4.31671
H	4.877637143627598	4.87053710429186	4.870576439689842
H	3.7748603061603325	4.873030282359427	3.7678162986495503
M	4.3271647638621875	4.4587776208673855	4.31734657050353
O	8.655	8.655	0.0
H	8.10236032233169	9.20763967766831	0.5526396776683097
H	9.20763967766831	8.10236032233169	0.5526396776683097
M	8.655	8.655	0.14148909267850943
O	0.0	8.655	8.655
H	0.5526396776683097	8.10236032233169	9.20763967766831
H	-0.5315821917650572	8.092126917769974	8.092126917769974
M	0.0026956122541837435	8.512200908071565	8.653690000750073
O	8.655	0.0	8.655
H	8.090084151510519	-0.5272305077011596	8.090084151510519
H	9.20763967766831	0.5526396776683097	8.10236032233169
M	8.653428502022887	0.0032526803174308533	8.511939409344379
O	12.98252	12.99335	4.31671
H	12.432362856372402	12.43946289570814	4.870576439689842
H	13.535139693839668	12.436969717640572	3.7678162986495503
M	12.982835236137813	12.851222379132615	4.31734657050353
O	4.32748	12.99335	12.99329
H	4.877637143627598	12.43946289570814	12.439423560310157
H	3.7748464680558955	13.5422366880145	12.436916543505662
M	4.327162992417862	12.992709886386475	12.851165898244076
O	12.98252	4.31665	12.9933
H	12.427370497855723	3.7652782071742408	13.544689169593553
H	13.535152370935645	3.767764465122346	12.43692425268878
M	12.982197776836106	4.175803787449304	12.992661657889078
